8

 C          0.0000000000        0.0000000000       -0.8466835985
 C          0.0000000000        0.0000000000        0.8466835985
 H          1.0274473008        0.0000000000       -1.2500432665
 H         -0.5137236504        0.8897954635       -1.2500432665
 H         -0.5137236504       -0.8897954635       -1.2500432665
 H         -1.0274473008        0.0000000000        1.2500432665
 H          0.5137236504        0.8897954635        1.2500432665
 H          0.5137236504       -0.8897954635        1.2500432665