5
   PEC of
 C          0.0000000000        0.0059682131        0.0000006059
 H          0.0000000000        1.0114049859        0.0000155265
 H          0.8983806634       -0.3608338041       -0.5186906445
 H          0.0000000000       -0.3608568958        1.0373585426
 H         -0.8983806634       -0.3608338041       -0.5186906445