8

 C          0.0000000000        0.0000000000       -0.7645818005
 C          0.0000000000        0.0000000000        0.7645818005
 H          1.0274473008        0.0000000000       -1.1679414685
 H         -0.5137236504        0.8897954635       -1.1679414685
 H         -0.5137236504       -0.8897954635       -1.1679414685
 H         -1.0274473008        0.0000000000        1.1679414685
 H          0.5137236504        0.8897954635        1.1679414685
 H          0.5137236504       -0.8897954635        1.1679414685