8

 C          0.0000000000        0.0000000000       -0.6879304235
 C          0.0000000000        0.0000000000        0.6879304235
 H          1.0274473008        0.0000000000       -1.0912900915
 H         -0.5137236504        0.8897954635       -1.0912900915
 H         -0.5137236504       -0.8897954635       -1.0912900915
 H         -1.0274473008        0.0000000000        1.0912900915
 H          0.5137236504        0.8897954635        1.0912900915
 H          0.5137236504       -0.8897954635        1.0912900915