8

 C          0.0000000000        0.0000000000       -0.7937658735
 C          0.0000000000        0.0000000000        0.7937658735
 H          1.0274473008        0.0000000000       -1.1971255415
 H         -0.5137236504        0.8897954635       -1.1971255415
 H         -0.5137236504       -0.8897954635       -1.1971255415
 H         -1.0274473008        0.0000000000        1.1971255415
 H          0.5137236504        0.8897954635        1.1971255415
 H          0.5137236504       -0.8897954635        1.1971255415