8

 C          0.0000000000        0.0000000000       -0.8202247360
 C          0.0000000000        0.0000000000        0.8202247360
 H          1.0274473008        0.0000000000       -1.2235844040
 H         -0.5137236504        0.8897954635       -1.2235844040
 H         -0.5137236504       -0.8897954635       -1.2235844040
 H         -1.0274473008        0.0000000000        1.2235844040
 H          0.5137236504        0.8897954635        1.2235844040
 H          0.5137236504       -0.8897954635        1.2235844040