6

 C          0.0000000000        0.0000000000       -0.7408481485
 C          0.0000000000        0.0000000000        0.7408481485
 H          0.0000000000        0.9306240645       -1.3189387139
 H          0.0000000000       -0.9306240645       -1.3189387139
 H          0.0000000000        0.9306240645        1.3189387139
 H          0.0000000000       -0.9306240645        1.3189387139