5
   PEC of
 C          0.0000006010        0.0000000000       -0.0073307185
 H         -0.0000132882        0.0000000000        1.2097769545
 H         -0.5186810201        0.8983806634       -0.3741463520
 H          1.0373681670        0.0000000000       -0.3741285950
 H         -0.5186810201       -0.8983806634       -0.3741463520