5
   PEC of
 C          0.0000005963        0.0000000000       -0.0001252194
 H         -0.0006947716        0.0000000000        1.1022967503
 H         -0.5184537372        0.8983806634       -0.3672620291
 H          1.0375951404        0.0000000000       -0.3662805297
 H         -0.5184537373       -0.8983806634       -0.3672620291