6

 C          0.0000000000        0.0000000000       -0.7673070110
 C          0.0000000000        0.0000000000        0.7673070110
 H          0.0000000000        0.9306240645       -1.3453975764
 H          0.0000000000       -0.9306240645       -1.3453975764
 H          0.0000000000        0.9306240645        1.3453975764
 H          0.0000000000       -0.9306240645        1.3453975764