 6

 C          0.0000000000        0.0000000000       -0.5820949740
 C          0.0000000000        0.0000000000        0.5820949740
 H          0.0000000000        0.9306240645       -1.1601855394
 H          0.0000000000       -0.9306240645       -1.1601855394
 H          0.0000000000        0.9306240645        1.1601855394
 H          0.0000000000       -0.9306240645        1.1601855394